System Matpower Format/npcc_ny_lite_s3_zone_j_supply_equivalent_uncalibrated.m
function mpc = npcc_ny_lite_s3_zone_j_supply_equivalent_uncalibrated
%NPCC_NY_LITE_S3_ZONE_J_SUPPLY_EQUIVALENT_UNCALIBRATED

%% MATPOWER Case Format : Version 2
mpc.version = '2';

%%-----  Power Flow Data  -----%%
%% system MVA base
mpc.baseMVA = 100;

%% bus data
%	bus_i	type	Pd	Qd	Gs	Bs	area	Vm	Va	baseKV	zone	Vmax	Vmin
mpc.bus = [
	1	1	0	0	0	0	1	0.974565763	29.2578469	345	1	1.1	0.9;
	2	1	0	0	0	0	1	0.966829613	27.6853924	345	1	1.1	0.9;
	3	1	11.1796635	88	0	0	1	0.944497787	26.836096	115	1	1.1	0.9;
	4	1	0	0	0	0	1	0.963050176	26.2011255	345	1	1.1	0.9;
	5	1	0	0	0	0	1	0.950983484	18.6682009	345	1	1.1	0.9;
	6	1	397.499146	153	0	0	1	0.976826118	6.00030646	345	1	1.1	0.9;
	7	1	408.678809	32	0	0	1	1.01424776	2.96953439	345	1	1.1	0.9;
	8	1	0	0	0	0	1	1.00415101	4.65581739	115	1	1.1	0.9;
	9	1	196.265203	30	0	0	1	0.990074315	6.68130126	115	1	1.1	0.9;
	10	1	0	0	0	0	1	1.06342339	0.359996884	115	1	1.1	0.9;
	11	1	844.685684	103	0	0	1	1.06657207	-4.11051986	115	1	1.1	0.9;
	12	1	340.358643	115	0	0	1	1.03136517	3.18422921	115	1	1.1	0.9;
	13	1	0	0	0	0	1	1.06483292	5.84852734	345	1	1.1	0.9;
	14	1	308.061838	85	0	0	1	1.06165209	4.79287134	345	1	1.1	0.9;
	15	1	383.835112	-92	0	0	1	1.02543517	2.16939347	345	1	1.1	0.9;
	16	1	224	47	0	0	1	1.02847653	19.7608798	345	1	1.1	0.9;
	17	1	172.663691	17	0	0	1	1.03086006	5.86317875	345	1	1.1	0.9;
	18	1	349.053937	76	0	0	1	1.01198259	3.79884556	115	1	1.1	0.9;
	19	1	255.890075	28	0	0	1	1.06666715	0.824181323	345	1	1.1	0.9;
	20	1	352.780492	27	0	0	1	1.0783436	1.2360409	345	1	1.1	0.9;
	21	2	0	0	0	0	1	1.1	48.8110522	24	1	1.1	0.9;
	22	2	0	0	0	0	1	1.1	3.1374945	18	1	1.1	0.9;
	23	2	0	0	0	0	1	1.1	-2.36131024	20	1	1.1	0.9;
	24	2	0	0	0	0	1	1.1	10.0273057	22.8	1	1.1	0.9;
	25	2	0	0	0	0	1	1.1	7.94693216	20	1	1.1	0.9;
	26	2	0	0	0	0	1	1.1	3.29890721	20	1	1.1	0.9;
	27	2	0	0	0	0	1	1.1	37.9454564	22	1	1.1	0.9;
	28	1	0	0	0	0	1	0.993617693	17.3547952	13.8	1	1.1	0.9;
	29	1	0	0	0	0	1	0.993617693	17.3547952	345	1	1.1	0.9;
	30	1	399.983515	2	0	0	1	0.975682833	11.6031456	345	1	1.1	0.9;
	31	1	621.092415	184	0	0	1	0.943089411	16.624287	345	1	1.1	0.9;
	32	1	0	0	0	0	1	0.951198062	22.69632	345	1	1.1	0.9;
	33	1	0	0	0	0	1	0.957937867	24.7797229	345	1	1.1	0.9;
	34	1	290.67125	84	0	0	1	0.941150645	20.2958962	345	1	1.1	0.9;
	35	1	648.420481	177	0	0	1	0.938625587	18.8635821	345	1	1.1	0.9;
	36	2	11.1796635	5	0	0	1	1.1	45.4454846	345	1	1.1	0.9;
	37	1	0	0	0	0	2	1.02100313	20.9632212	345	70	1.1	0.9;
	38	1	0	0	0	0	2	1.0319714	25.4159296	345	70	1.1	0.9;
	39	1	0	0	0	0	2	0.999498185	16.3197795	345	71	1.1	0.9;
	40	1	0	0	0	0	2	1.0474538	17.8759997	230	70	1.1	0.9;
	41	1	809.143671	125	0	0	2	1.06962395	13.5125484	115	70	1.1	0.9;
	42	2	204.597757	17	0	0	2	1.1	14.059003	115	70	1.1	0.9;
	43	1	0	0	0	0	2	1.0573451	30.7470796	345	69	1.1	0.9;
	44	1	0	0	0	0	2	1.06365915	27.6578363	230	69	1.1	0.9;
	45	1	295.9154	17	0	0	2	1.0620279	25.2592985	115	69	1.1	0.9;
	46	1	26.5861492	-42.5	0	0	2	1.09322039	26.9887306	115	68	1.1	0.9;
	47	2	610.325512	100	0	0	2	1.09999999	33.2210683	230	68	1.1	0.9;
	48	2	0	0	0	0	2	1.1	29.3915448	230	68	1.1	0.9;
	49	1	240.431262	17	0	0	2	1.00362111	13.6126662	115	68	1.1	0.9;
	50	2	0	0	0	0	2	1.1	40.9452925	345	67	1.1	0.9;
	51	2	844.977176	75	0	0	2	1.08300607	35.289283	115	67	1.1	0.9;
	52	1	0	0	0	0	2	1.08574763	44.7559085	345	66	1.1	0.9;
	53	2	1066.91373	250	0	0	2	1.09999998	44.3216212	115	66	1.1	0.9;
	54	2	20	0	0	0	2	1.05172033	49.3454807	230	65	1.1	0.9;
	55	2	939	132	0	0	2	1.08981247	46.4205077	230	65	1.1	0.9;
	56	2	198.818159	44	0	0	2	1.1	52.4187892	230	65	1.1	0.9;
	57	2	277.420687	-6	0	0	2	1.0934149	43.3867497	115	65	1.1	0.9;
	58	1	97.0972405	38	0	0	2	1.06484475	44.9464439	230	65	1.1	0.9;
	59	1	814.923268	198	0	0	2	1.05436325	41.5897674	115	65	1.1	0.9;
	60	2	0	0	0	0	2	1.09860245	41.3163884	230	65	1.1	0.9;
	61	2	273.952928	8	0	0	2	1.05145966	34.9045199	115	65	1.1	0.9;
	62	1	0	0	0	0	2	1.06290223	44.8237179	230	65	1.1	0.9;
	63	1	0	0	0	0	2	1.05838751	39.1077928	230	67	1.1	0.9;
	64	1	165.296493	25	0	0	2	1.05841767	36.0757972	115	67	1.1	0.9;
	65	2	105.188677	0	0	0	2	1.07077891	37.8953042	115	67	1.1	0.9;
	66	1	0	0	0	0	2	1.07348882	43.3369251	345	67	1.1	0.9;
	67	1	0	0	0	0	2	1.06437504	38.7273037	230	67	1.1	0.9;
	68	2	243.899021	41	0	0	2	1.1	34.2192684	115	67	1.1	0.9;
	69	1	0	0	0	0	2	1.07231486	38.2580433	345	67	1.1	0.9;
	70	1	0	0	0	0	2	1.08706745	39.920033	230	67	1.1	0.9;
	71	2	428.846145	53	0	0	2	1.1	40.9276046	115	67	1.1	0.9;
	72	2	0	0	0	0	2	1.08884679	38.8425171	115	67	1.1	0.9;
	73	1	0	0	0	0	3	0.977954429	10.347898	345	71	1.1	0.9;
	74	1	117.903792	0	0	0	3	0.974926849	1.57237472	345	73	1.1	0.9;
	75	1	0	0	0	0	3	0.968782604	-0.588157838	138	71	1.1	0.9;
	76	1	0	0	0	0	3	0.972794501	0.262818089	345	71	1.1	0.9;
	77	1	0	0	0	0	3	0.977818902	1.06435512	345	73	1.1	0.9;
	78	3	2311.83906	600	0	0	3	0.974721326	0	345	72	1.1	0.9;
	79	2	0	0	0	0	3	0.980677999	5.29361657	22	74	1.1	0.9;
	80	2	809.143671	25	0	0	3	0.952721175	-8.35509986	138	75	1.1	0.9;
	81	1	0	0	0	0	3	0.950759831	-6.11493981	345	74	1.1	0.9;
	82	2	0	0	0	0	3	0.997173511	11.2863449	22	74	1.1	0.9;
	83	1	80	16	0	0	4	1.03225926	11.7493681	220	1	1.1	0.9;
	84	1	0	0	0	0	4	1.03827169	12.2705618	118.1	1	1.1	0.9;
	85	1	18	0	0	0	4	1.08216518	19.8313286	220	1	1.1	0.9;
	86	2	50	25	0	0	4	1.09999999	21.889426	24	1	1.1	0.9;
	87	1	0	0	0	0	4	1.09559331	17.8679875	220	1	1.1	0.9;
	88	1	110	55	0	0	4	1.05900541	18.6383374	220	1	1.1	0.9;
	89	1	100	70	0	0	4	1.03548736	17.8872331	220	1	1.1	0.9;
	90	1	115	45	0	0	4	1.0338353	18.0804426	220	1	1.1	0.9;
	91	2	1650	500	0	0	4	1.00048644	16.0894833	220	1	1.1	0.9;
	92	2	10	320	0	0	4	1.1	43.3880821	500	1	1.1	0.9;
	93	1	125	0	0	0	4	0.928319285	12.97519	220	1	1.1	0.9;
	94	1	95	0	0	0	4	0.932305154	11.9152122	220	1	1.1	0.9;
	95	1	-100	87	0	0	4	0.933034372	27.0761903	220	1	1.1	0.9;
	96	1	-40	-25	0	0	4	1.0173336	35.6668769	13.8	1	1.1	0.9;
	97	2	910	50	0	0	4	1.07937601	40.0134852	220	1	1.1	0.9;
	98	2	0	0	0	0	4	0.964770429	23.8645277	220	1	1.1	0.9;
	99	1	0	0	0	0	4	0.969884128	24.0988044	220	1	1.1	0.9;
	100	1	0	0	0	0	4	1.00886012	25.8482731	220	1	1.1	0.9;
	101	2	350	130	0	0	4	0.98018483	34.8808788	220	1	1.1	0.9;
	102	1	0	0	0	0	4	1.00335293	41.8063083	220	1	1.1	0.9;
	103	1	0	0	0	0	4	0.998360663	40.6047113	220	1	1.1	0.9;
	104	1	200	90	0	0	4	0.955299325	17.7532442	220	1	1.1	0.9;
	105	1	325	0	0	0	4	1.0240305	16.9850447	220	1	1.1	0.9;
	106	1	0	-12	0	0	4	0.966503586	17.6517065	220	1	1.1	0.9;
	107	1	0	-19	0	0	4	0.967531977	20.2142317	220	1	1.1	0.9;
	108	1	0	-13	0	0	4	0.954469203	19.0740318	220	1	1.1	0.9;
	109	1	0	-13	0	0	4	0.954540989	19.0385669	220	1	1.1	0.9;
	110	1	718	125	0	0	4	0.960146108	17.147546	220	1	1.1	0.9;
	111	1	399	45	0	0	4	0.942370717	12.758447	220	1	1.1	0.9;
	112	1	0	0	0	0	4	1.05484439	16.9536911	220	1	1.1	0.9;
	113	1	206	0	0	0	4	1.02955644	11.2601206	118.1	1	1.1	0.9;
	114	1	0	90	0	0	5	1.03738949	19.4920185	220	1	1.1	0.9;
	115	2	100	0	0	0	5	1.09647785	17.7236838	500	1	1.1	0.9;
	116	1	200	0	0	0	5	1.05885762	15.5996759	220	1	1.1	0.9;
	117	1	400	97	0	0	5	1.07809692	17.8307372	230	1	1.1	0.9;
	118	1	280	86	0	0	5	1.07696343	18.9492754	115	1	1.1	0.9;
	119	2	750	200	0	0	5	1.08292994	14.2122359	220	1	1.1	0.9;
	120	2	946	-40	0	0	5	1.1	34.9389671	220	1	1.1	0.9;
	121	2	0	0	0	0	5	1.1	27.9729274	220	1	1.1	0.9;
	122	2	0	0	0	0	5	1.1	18.500106	220	1	1.1	0.9;
	123	2	63	10	0	0	5	1.09999999	18.3167656	230	1	1.1	0.9;
	124	1	370	49	0	0	6	0.94744896	-2.61223135	230	1	1.1	0.9;
	125	1	320	5	0	0	6	0.949732587	-6.36169677	230	1	1.1	0.9;
	126	1	450	0	0	0	6	0.935694188	-9.76604239	230	1	1.1	0.9;
	127	1	200	-150	0	0	6	0.945131069	1.95247203	500	1	1.1	0.9;
	128	1	1121.24194	-102	0	0	6	0.934744527	-4.72575546	500	1	1.1	0.9;
	129	1	610	-50	0	0	6	0.905678902	0.314151901	500	1	1.1	0.9;
	130	2	180	0	0	0	6	0.902224043	4.2995991	500	1	1.1	0.9;
	131	1	1160	-432	0	0	6	0.908643861	5.13407163	500	1	1.1	0.9;
	132	1	210	-337	0	0	6	0.928239543	17.0786393	500	1	1.1	0.9;
	133	2	0	0	0	0	6	0.9	29.9575864	500	1	1.1	0.9;
	134	2	0	0	0	0	6	1.0791422	47.6923007	230	1	1.1	0.9;
	135	2	170	0	0	0	6	0.900000001	26.7751503	500	1	1.1	0.9;
	136	1	270	223	0	0	6	1.03632024	32.4235769	345	1	1.1	0.9;
	137	2	0	0	0	0	6	1.1	32.2419119	230	1	1.1	0.9;
	138	1	110	64	0	0	6	0.988824448	32.2720472	230	1	1.1	0.9;
	139	2	0	0	0	0	6	0.900000001	19.7265697	345	1	1.1	0.9;
	140	1	0	0	0	0	6	1.09999999	41.3085576	230	1	1.1	0.9;
	9001	1	0	0	0	0	3	0.977954429	10.347898	345	71	1.1	0.9;
	9002	1	0	0	0	0	3	0.974926849	1.57237472	345	73	1.1	0.9;
	9003	1	0	0	0	0	3	0.952721175	-8.35509986	345	75	1.1	0.9;
];

%% generator data
%	bus	Pg	Qg	Qmax	Qmin	Vg	mBase	status	Pmax	Pmin	Pc1	Pc2	Qc1min	Qc1max	Qc2min	Qc2max	ramp_agc	ramp_10	ramp_30	ramp_q	apf
mpc.gen = [
	21	1793.93322	998.999996	999	-999	1.1	750	1	1793.93322	0	0	0	0	0	0	0	0	0	0	0	0;
	22	412.624314	272.676629	999	-999	1.1	700	1	412.624315	0	0	0	0	0	0	0	0	0	0	0	0;
	23	27.325459	2.18154749	999	-999	1.1	300	1	180.231046	0	0	0	0	0	0	0	0	0	0	0	0;
	23	181.476825	194.697377	9999	-9999	1.1	300	1	181.476826	0	0	0	0	0	0	0	0	0	0	0	0;
	24	596.869972	292.291544	999	-999	1.1	800	1	596.869973	0	0	0	0	0	0	0	0	0	0	0	0;
	25	239.119014	157.191593	999	-999	1.1	650	1	333.659703	0	0	0	0	0	0	0	0	0	0	0	0;
	26	281.047831	143.220352	999	-999	1.1	900	1	281.047831	0	0	0	0	0	0	0	0	0	0	0	0;
	27	1535.86381	542.945609	999	-999	1.1	600	1	1535.86381	0	0	0	0	0	0	0	0	0	0	0	0;
	36	1498.69381	901.282459	999	-999	1.1	650	1	1645.49178	0	0	0	0	0	0	0	0	0	0	0	0;
	42	398.790277	349.52573	999	-999	1.1	400	1	568.003995	0	0	0	0	0	0	0	0	0	0	0	0;
	47	944.920662	70.3444442	999	-999	1.09999999	450	1	944.920662	0	0	0	0	0	0	0	0	0	0	0	0;
	48	40.0600456	132.871442	999	-999	1.1	500	1	40.0600457	0	0	0	0	0	0	0	0	0	0	0	0;
	50	1785.45753	448.554516	999	-999	1.1	700	1	1785.45753	0	0	0	0	0	0	0	0	0	0	0	0;
	51	4.30367365e-07	44.8515469	999	-999	1.08300607	150	1	473.126358	0	0	0	0	0	0	0	0	0	0	0	0;
	53	1246.75388	242.955128	999	-999	1.09999998	100	1	1246.75388	0	0	0	0	0	0	0	0	0	0	0	0;
	54	800	0.470267887	999	-999	1.05172033	650	1	800	0	0	0	0	0	0	0	0	0	0	0	0;
	54	800	65.0449814	9999	-9999	1.05172033	650	1	800	0	0	0	0	0	0	0	0	0	0	0	0;
	55	800	416.208953	999	-999	1.08981247	1200	1	800	0	0	0	0	0	0	0	0	0	0	0	0;
	56	2008.56918	123.109611	999	-999	1.1	500	1	2008.56918	0	0	0	0	0	0	0	0	0	0	0	0;
	57	58.0820775	88.7434425	999	-999	1.0934149	350	1	58.0820776	0	0	0	0	0	0	0	0	0	0	0	0;
	60	2.66180453e-07	202.606111	999	-999	1.09860245	450	1	241.530822	0	0	0	0	0	0	0	0	0	0	0	0;
	61	2.32602822e-07	-23.9178436	999	-999	1.05145966	200	1	536.638127	0	0	0	0	0	0	0	0	0	0	0	0;
	65	2.42127141e-08	27.6861952	999	-999	1.07077891	100	1	12.0864155	0	0	0	0	0	0	0	0	0	0	0	0;
	68	2.56178694e-07	172.280965	999	-999	1.1	100	1	437.870205	0	0	0	0	0	0	0	0	0	0	0	0;
	71	1039.81975	94.1098296	999	-999	1.1	100	1	1039.81975	0	0	0	0	0	0	0	0	0	0	0	0;
	72	3.09294094e-07	-17.3485866	999	-999	1.08884679	100	1	308.320782	0	0	0	0	0	0	0	0	0	0	0	0;
	78	565.099091	777.172253	999	-999	0.974721326	100	1	565.099092	0	0	0	0	0	0	0	0	0	0	0	0;
	79	577.453484	53.5038859	999	-999	0.980677999	1150	1	577.453484	0	0	0	0	0	0	0	0	0	0	0	0;
	80	584.92934	35.2376352	999	-999	0.952721175	800	1	584.929342	0	0	0	0	0	0	0	0	0	0	0	0;
	82	619.623976	123.659545	999	-999	0.997173511	500	1	619.623976	0	0	0	0	0	0	0	0	0	0	0	0;
	86	800	382.65222	999	-999	1.09999999	1900	1	800	0	0	0	0	0	0	0	0	0	0	0	0;
	91	800	1072.14353	9999	-9999	1.00048644	100	1	800	0	0	0	0	0	0	0	0	0	0	0	0;
	92	800	610.726126	999	-999	1.1	100	1	800	0	0	0	0	0	0	0	0	0	0	0	0;
	97	800	55.3826773	999	-999	1.07937601	100	1	800	0	0	0	0	0	0	0	0	0	0	0	0;
	98	102.529909	-102.576504	999	-999	0.964770429	650	1	102.529909	0	0	0	0	0	0	0	0	0	0	0	0;
	101	800	161.172183	999	-999	0.98018483	1350	1	800	0	0	0	0	0	0	0	0	0	0	0	0;
	115	1.34126774e-07	505.835423	999	-999	1.09647785	100	1	822.002397	0	0	0	0	0	0	0	0	0	0	0	0;
	119	1.4894655e-07	354.207702	999	-999	1.08292994	100	1	1163.72156	0	0	0	0	0	0	0	0	0	0	0	0;
	120	2085.23345	79.8446804	999	-999	1.1	100	1	2085.23345	0	0	0	0	0	0	0	0	0	0	0	0;
	121	711.595181	84.2856932	999	-999	1.1	100	1	1456.93436	0	0	0	0	0	0	0	0	0	0	0	0;
	122	6.11179006e-08	246.764683	999	-999	1.1	100	1	1110.62043	0	0	0	0	0	0	0	0	0	0	0	0;
	123	7.80614098e-07	161.117246	999	-999	1.09999999	100	1	2200.24661	0	0	0	0	0	0	0	0	0	0	0	0;
	130	205.641905	-437.054543	999	-999	0.902224043	100	1	2487.70936	0	0	0	0	0	0	0	0	0	0	0	0;
	133	2233.8369	-141.847244	999	-999	0.9	100	1	3186.13607	0	0	0	0	0	0	0	0	0	0	0	0;
	134	2932.80502	998.999995	999	-999	1.0791422	100	1	2932.80502	0	0	0	0	0	0	0	0	0	0	0	0;
	135	1.28816527e-07	-271.878499	999	-999	0.900000001	100	1	1539.43821	0	0	0	0	0	0	0	0	0	0	0	0;
	137	1.2732082e-07	308.434239	999	-999	1.1	100	1	1633.2871	0	0	0	0	0	0	0	0	0	0	0	0;
	139	1.79781798e-07	-254.858924	999	-999	0.900000001	100	1	1193.01815	0	0	0	0	0	0	0	0	0	0	0	0;
	79	0	0	0	-0	0.980677999	100	1	1400	0	0	0	0	0	0	0	0	0	0	0	0;
	82	0	0	0	-0	0.997173511	100	1	1050	0	0	0	0	0	0	0	0	0	0	0	0;
	81	0	0	0	-0	0.950759831	100	1	1050	0	0	0	0	0	0	0	0	0	0	0	0;
];

%% branch data
%	fbus	tbus	r	x	b	rateA	rateB	rateC	ratio	angle	status	angmin	angmax
mpc.branch = [
	1	2	0.0004	0.0043	0.07	2500	0	0	0	0	1	-360	360;
	1	4	0.0004	0.0043	0.07	2500	0	0	0	0	1	-360	360;
	2	33	0.0007	0.0082	0.14	2500	0	0	0	0	1	-360	360;
	4	5	0.0009	0.0101	0.17	2500	0	0	0	0	1	-360	360;
	5	6	0.0018	0.0217	0.37	2500	0	0	0	0	1	-360	360;
	5	31	0.0008	0.0129	0.14	2500	0	0	0	0	1	-360	360;
	6	7	0.0009	0.0094	0.17	2500	0	0	0	0	1	-360	360;
	7	8	0.0007	0.0089	0.13	2500	0	0	0	0	1	-360	360;
	7	10	0.0016	0.0195	0.3	2500	0	0	0	0	1	-360	360;
	7	12	0.0008	0.0135	0.25	2500	0	0	0	0	1	-360	360;
	7	15	0.0003	0.0059	0.07	2500	0	0	0	0	1	-360	360;
	8	9	0.0007	0.0082	0.13	2500	0	0	0	0	1	-360	360;
	8	18	0.0013	0.0173	0.32	2500	0	0	0	0	1	-360	360;
	9	30	0.0011	0.0133	0.21	2500	0	0	0	0	1	-360	360;
	12	13	0.0008	0.014	0.26	2500	0	0	0	0	1	-360	360;
	13	14	0.0006	0.0096	0.18	2500	0	0	0	0	1	-360	360;
	14	15	0.0022	0.035	0.36	2500	0	0	0	0	1	-360	360;
	16	17	0.0032	0.0323	0.53	2500	0	0	0	0	1	-360	360;
	16	29	0.007	0.0086	0.15	2500	0	0	0	0	1	-360	360;
	17	18	0.0014	0.0147	0.24	2500	0	0	0	0	1	-360	360;
	17	19	0.0043	0.0474	0.78	2500	0	0	0	0	1	-360	360;
	17	20	0.0057	0.0625	1.03	2500	0	0	0	0	1	-360	360;
	19	20	0.0014	0.0151	0.25	2500	0	0	0	0	1	-360	360;
	29	30	0.0013	0.0151	0.26	2500	0	0	0	0	1	-360	360;
	29	37	0.0035	0.0411	0.7	1206.77007	0	0	0	0	1	-360	360;
	30	31	0.0013	0.0213	0.22	2500	0	0	0	0	1	-360	360;
	31	32	0.0008	0.0128	0.13	2500	0	0	0	0	1	-360	360;
	32	33	0.0002	0.0026	0.04	2500	0	0	0	0	1	-360	360;
	32	35	0.0008	0.0112	0.15	2500	0	0	0	0	1	-360	360;
	33	34	0.0006	0.0092	0.11	2500	0	0	0	0	1	-360	360;
	34	35	0.0004	0.0046	0.08	2500	0	0	0	0	1	-360	360;
	35	73	0.0023	0.0363	0.38	1206.77007	0	0	0	0	1	-360	360;
	37	38	0.0016	0.0163	0.25	2500	0	0	0	0	1	-360	360;
	37	39	0.0008	0.0074	0.48	2500	0	0	0	0	1	-360	360;
	37	40	0.0009	0.0315	0.06	2500	0	0	0	0	1	-360	360;
	37	43	0.0013	0.0188	1.31	2500	0	0	0	0	1	-360	360;
	38	69	0.0043	0.0485	0.79	2500	0	0	0	0	1	-360	360;
	39	73	0.0019	0.0183	0.29	2500	0	0	0	0	1	-360	360;
	39	73	0.0019	0.0183	0.29	2500	0	0	0	0	1	-360	360;
	40	44	0.008	0.053	0.4	2500	0	0	0	0	1	-360	360;
	41	42	0.0018	0.0089	0.07	2500	0	0	0	0	1	-360	360;
	41	45	0.0776	0.2241	0.13	2500	0	0	0	0	1	-360	360;
	43	44	0	0.011	0	2500	0	0	0	0	1	-360	360;
	43	50	0.0025	0.0268	0.4	2500	0	0	0	0	1	-360	360;
	43	50	0.0025	0.0268	0.4	2500	0	0	0	0	1	-360	360;
	44	45	0	0.0205	0	2500	0	0	0	0	1	-360	360;
	44	48	0.015	0.105	0.79	2500	0	0	0	0	1	-360	360;
	45	46	0.1235	0.3548	0.16	2500	0	0	0	0	1	-360	360;
	45	51	0.0605	0.1896	0.08	2500	0	0	0	0	1	-360	360;
	45	71	0.1751	0.5575	0.12	2500	0	0	0	0	1	-360	360;
	46	47	0.0632	0.121	0.05	2500	0	0	0	0	1	-360	360;
	46	49	0.164	0.578	0.06	2500	0	0	0	0	1	-360	360;
	47	48	0	0.033	0	2500	0	0	0	0	1	-360	360;
	50	51	0	0.0207	0	2500	0	0	0	0	1	-360	360;
	50	52	0.002	0.022	1.28	2500	0	0	0	0	1	-360	360;
	51	53	0.0844	0.2161	0.22	2500	0	0	0	0	1	-360	360;
	51	72	0.0051	0.0232	0.3	2500	0	0	0	0	1	-360	360;
	52	53	0.0014	0.0388	0	2500	0	0	0	0	1	-360	360;
	53	55	0.03	0.107	0.3	789.941803	0	0	0	0	1	-360	360;
	53	65	0.035	0.08	0.05	2500	0	0	0	0	1	-360	360;
	54	56	0.01	0.008	0.07	789.941803	0	0	0	0	1	-360	360;
	54	62	0.008	0.069	0.13	789.941803	0	0	0	0	1	-360	360;
	54	102	0.0016	0.0248	0.06	2500	0	0	0	0	1	-360	360;
	54	103	0.0016	0.0248	0.06	2500	0	0	0	0	1	-360	360;
	55	57	0.0074	0.04	0.02	789.941803	0	0	0	0	1	-360	360;
	55	59	0.016	0.0817	0.04	789.941803	0	0	0	0	1	-360	360;
	56	58	0.002	0.015	0.11	2500	0	0	0	0	1	-360	360;
	57	59	0.014	0.068	0.03	2500	0	0	0	0	1	-360	360;
	58	60	0.0035	0.0344	0.27	2500	0	0	0	0	1	-360	360;
	58	62	0.002	0.018	0.03	2500	0	0	0	0	1	-360	360;
	59	61	0.068	0.143	0.06	2500	0	0	0	0	1	-360	360;
	60	140	0.0039	0.0363	0.07	773.970762	0	0	0	0	1	-360	360;
	62	63	0.0129	0.0803	0.15	2500	0	0	0	0	1	-360	360;
	63	64	0	0.046	0	2500	0	0	0	0	1	-360	360;
	63	67	0.012	0.093	0.18	2500	0	0	0	0	1	-360	360;
	64	65	0.035	0.08	0.05	2500	0	0	0	0	1	-360	360;
	64	68	0.0988	0.231	0.13	2500	0	0	0	0	1	-360	360;
	66	67	0	0.0231	0	2500	0	0	0	0	1	-360	360;
	66	69	0.0018	0.0274	0.27	2500	0	0	0	0	1	-360	360;
	66	134	0.00076	0.01141	1.16	773.970762	0	0	0	0	1	-360	360;
	67	68	0	0.049	0	2500	0	0	0	0	1	-360	360;
	67	70	0.007	0.0619	0.12	2500	0	0	0	0	1	-360	360;
	67	138	0.0063	0.0491	0.09	2500	0	0	0	0	1	-360	360;
	68	71	0.1203	0.2048	0.07	2500	0	0	0	0	1	-360	360;
	69	71	0	0.0375	0	2500	0	0	0	0	1	-360	360;
	70	71	0	0.049	0	2500	0	0	0	0	1	-360	360;
	71	72	0.0053	0.0135	0.1	2500	0	0	0	0	1	-360	360;
	73	74	0.0022	0.0196	0.34	2500	0	0	0	0	1	-360	360;
	73	74	0.0022	0.0196	0.34	2500	0	0	0	0	1	-360	360;
	74	77	0.0003	0.0043	0.08	2500	0	0	0	0	1	-360	360;
	74	78	0.0005	0.0045	0.32	2500	0	0	0	0	1	-360	360;
	74	78	0.0005	0.0045	0.32	2500	0	0	0	0	1	-360	360;
	75	124	0.0007	0.0175	1.39	2500	0	0	0	0	1	-360	360;
	76	77	0.003	0.0068	1.37	2500	0	0	0	0	1	-360	360;
	78	79	0.0003	0.0153	0	2500	0	0	0	0	1	-360	360;
	78	80	0.0135	0.0582	0.5	2500	0	0	0	0	1	-360	360;
	78	81	0.0005	0.0276	0	2500	0	0	0	0	1	-360	360;
	78	82	0.0005	0.0308	0	2500	0	0	0	0	1	-360	360;
	81	125	0.0001	0.0011	0	2500	0	0	0	0	1	-360	360;
	83	112	0.0185	0.1537	0	176.592906	0	0	0	0	1	-360	360;
	83	113	0.0037	0.0202	0	176.592906	0	0	0	0	1	-360	360;
	84	116	0.0015	0.1045	0	2500	0	0	0	0	1	-360	360;
	85	88	0.0016	0.0202	0.03	2500	0	0	0	0	1	-360	360;
	85	88	0.0016	0.0202	0.03	2500	0	0	0	0	1	-360	360;
	85	105	0.01	0.109	0.18	2500	0	0	0	0	1	-360	360;
	85	105	0.01	0.109	0.18	2500	0	0	0	0	1	-360	360;
	85	112	0.0069	0.0595	0.1	2500	0	0	0	0	1	-360	360;
	85	112	0.0069	0.0595	0.1	2500	0	0	0	0	1	-360	360;
	87	115	0.0001	0.0018	0.02	176.592906	0	0	0	0	1	-360	360;
	88	89	0.0005	0.0205	0	2500	0	0	0	0	1	-360	360;
	88	105	0.0112	0.0993	0.17	2500	0	0	0	0	1	-360	360;
	88	105	0.0112	0.0993	0.17	2500	0	0	0	0	1	-360	360;
	89	90	0.0013	0.0049	0	2500	0	0	0	0	1	-360	360;
	89	105	0.0894	0.3363	0	2500	0	0	0	0	1	-360	360;
	89	113	0.1456	0.4115	0	2500	0	0	0	0	1	-360	360;
	90	114	0.0024	0.015	0	176.592906	0	0	0	0	1	-360	360;
	91	92	0.0058	0.0928	0	2500	0	0	0	0	1	-360	360;
	91	93	0.0421	0.2932	0	2500	0	0	0	0	1	-360	360;
	91	95	0.0261	0.1844	0	2500	0	0	0	0	1	-360	360;
	91	98	0.012	0.0854	0	789.941803	0	0	0	0	1	-360	360;
	91	110	0.0017	0.0117	0	2500	0	0	0	0	1	-360	360;
	92	97	0.0008	0.0303	0	2500	0	0	0	0	1	-360	360;
	93	94	0.0042	0.0283	0	2500	0	0	0	0	1	-360	360;
	93	95	0.0187	0.1284	0	2500	0	0	0	0	1	-360	360;
	94	111	0.0049	0.0336	0	2500	0	0	0	0	1	-360	360;
	95	96	0.0136	0.0955	0	2500	0	0	0	0	1	-360	360;
	96	97	0.016	0.0767	0	2500	0	0	0	0	1	-360	360;
	98	99	0.0003	0.0092	0	2500	0	0	0	0	1	-360	360;
	99	100	0.001	0.0702	0	2500	0	0	0	0	1	-360	360;
	101	104	0.0077	0.0773	0	2500	0	0	0	0	1	-360	360;
	101	105	0.0188	0.1493	0	2500	0	0	0	0	1	-360	360;
	101	107	0.0076	0.0751	0	2500	0	0	0	0	1	-360	360;
	101	108	0.0078	0.0772	0	2500	0	0	0	0	1	-360	360;
	101	109	0.0078	0.0783	0	2500	0	0	0	0	1	-360	360;
	101	110	0.0482	0.2636	0	2500	0	0	0	0	1	-360	360;
	104	106	0.0018	0.018	0	2500	0	0	0	0	1	-360	360;
	104	110	0.0006	0.0062	0	2500	0	0	0	0	1	-360	360;
	105	106	0.0165	0.1156	0	2500	0	0	0	0	1	-360	360;
	105	107	0.0115	0.1103	0	2500	0	0	0	0	1	-360	360;
	105	111	0.0131	0.0809	0.13	2500	0	0	0	0	1	-360	360;
	105	112	0.008	0.0497	0.3	2500	0	0	0	0	1	-360	360;
	105	113	0.3824	0.9479	0	2500	0	0	0	0	1	-360	360;
	107	110	0.0021	0.0186	0	2500	0	0	0	0	1	-360	360;
	108	110	0.0026	0.0194	0	2500	0	0	0	0	1	-360	360;
	108	111	0.0059	0.0577	0	2500	0	0	0	0	1	-360	360;
	109	110	0.0026	0.0194	0	2500	0	0	0	0	1	-360	360;
	109	111	0.0059	0.0577	0	2500	0	0	0	0	1	-360	360;
	112	113	0.0101	0.0873	0	2500	0	0	0	0	1	-360	360;
	114	117	0.0663	0.3696	0	2500	0	0	0	0	1	-360	360;
	114	119	0.0876	0.254	0	2500	0	0	0	0	1	-360	360;
	114	121	0.0063	0.0802	0	2500	0	0	0	0	1	-360	360;
	115	116	0.0733	0.9799	0	2500	0	0	0	0	1	-360	360;
	115	117	0.001	0.0114	0	2500	0	0	0	0	1	-360	360;
	115	118	0.1657	0.1551	0	2500	0	0	0	0	1	-360	360;
	115	119	0.0033	0.0392	0	2500	0	0	0	0	1	-360	360;
	115	121	0.022	0.2984	0	2500	0	0	0	0	1	-360	360;
	115	135	0	0.6309	0	549.442667	0	0	0	0	1	-360	360;
	115	139	0	0.1243	0	549.442667	0	0	0	0	1	-360	360;
	116	117	0.0474	0.2631	0	2500	0	0	0	0	1	-360	360;
	116	118	0.0117	0.0744	0	2500	0	0	0	0	1	-360	360;
	116	120	0.2307	0.7041	0	2500	0	0	0	0	1	-360	360;
	116	121	0.0951	0.4576	0	2500	0	0	0	0	1	-360	360;
	116	122	0.0033	0.1287	0	2500	0	0	0	0	1	-360	360;
	117	118	0.002	0.0199	0	2500	0	0	0	0	1	-360	360;
	117	119	0.0017	0.0189	0	2500	0	0	0	0	1	-360	360;
	117	120	0.0067	0.0797	0	2500	0	0	0	0	1	-360	360;
	117	121	0.015	0.0869	0	2500	0	0	0	0	1	-360	360;
	117	122	0.0383	0.0886	0	2500	0	0	0	0	1	-360	360;
	118	120	0.005	0.0629	0	2500	0	0	0	0	1	-360	360;
	118	121	0.1391	0.4798	0	2500	0	0	0	0	1	-360	360;
	118	122	0.095	0.5071	0	2500	0	0	0	0	1	-360	360;
	118	123	0.0014	0.0174	0	2500	0	0	0	0	1	-360	360;
	119	120	0.1065	0.3498	0	2500	0	0	0	0	1	-360	360;
	119	121	0.1636	0.5804	0	2500	0	0	0	0	1	-360	360;
	121	122	0.125	0.4699	0	2500	0	0	0	0	1	-360	360;
	122	135	0.0573	0.7581	0	549.442667	0	0	0	0	1	-360	360;
	122	139	0	0.1532	0	549.442667	0	0	0	0	1	-360	360;
	124	125	0.0025	0.073	0	2500	0	0	0	0	1	-360	360;
	124	126	0	0.0839	0	2500	0	0	0	0	1	-360	360;
	124	127	0.0004	0.0105	0.72	2500	0	0	0	0	1	-360	360;
	124	128	0.0005	0.0117	0.84	2500	0	0	0	0	1	-360	360;
	125	126	0	0.0411	0	2500	0	0	0	0	1	-360	360;
	125	128	0.0049	0.2634	0	2500	0	0	0	0	1	-360	360;
	126	127	0	0.2532	0	2500	0	0	0	0	1	-360	360;
	126	128	0	0.2741	0	2500	0	0	0	0	1	-360	360;
	126	138	0	0.6805	0	2500	0	0	0	0	1	-360	360;
	127	128	0	0.1339	0	773.970762	0	0	0	0	1	-360	360;
	127	132	0.0009	0.0221	1.62	2500	0	0	0	0	1	-360	360;
	128	129	0	0.1381	0	773.970762	0	0	0	0	1	-360	360;
	128	130	0.0007	0.0175	1.26	773.970762	0	0	0	0	1	-360	360;
	129	130	0.0004	0.0085	0.6	2500	0	0	0	0	1	-360	360;
	130	131	0.0002	0.0038	0.54	2500	0	0	0	0	1	-360	360;
	130	132	0.0007	0.0173	1.25	2500	0	0	0	0	1	-360	360;
	131	133	0.002	0.039	2.77	2500	0	0	0	0	1	-360	360;
	131	135	0.0057	0.0699	0	2500	0	0	0	0	1	-360	360;
	131	139	0.0059	0.1052	0	2500	0	0	0	0	1	-360	360;
	132	133	0.0012	0.0293	2.09	2500	0	0	0	0	1	-360	360;
	132	134	0.00235	0.04388	0	2500	0	0	0	0	1	-360	360;
	132	135	0.0012	0.0288	2.06	2500	0	0	0	0	1	-360	360;
	132	138	0.0331	0.4224	0	2500	0	0	0	0	1	-360	360;
	133	135	0.0003	0.0063	0.45	2500	0	0	0	0	1	-360	360;
	134	135	0.0046	0.0625	0	2500	0	0	0	0	1	-360	360;
	134	136	0.0046	0.0782	0.79	2500	0	0	0	0	1	-360	360;
	135	139	0.0177	0.0661	0	2500	0	0	0	0	1	-360	360;
	136	139	0	0.2054	0	2500	0	0	0	0	1	-360	360;
	137	138	0.2553	0.718	0	2500	0	0	0	0	1	-360	360;
	1	21	0	0.02	0	2500	0	0	1	0	1	-360	360;
	3	2	0.0016	0.0435	0	2500	0	0	1	0	1	-360	360;
	3	4	0.0016	0.0435	0	2500	0	0	1	0	1	-360	360;
	10	11	0.0007	0.0138	0	2500	0	0	1	0	1	-360	360;
	10	22	0.0007	0.0142	0	2500	0	0	1	0	1	-360	360;
	11	23	0.0009	0.018	0	2500	0	0	1	0	1	-360	360;
	13	24	0	0.0143	0	2500	0	0	1	0	1	-360	360;
	14	25	0.0005	0.0272	0	2500	0	0	1	0	1	-360	360;
	16	27	0.0006	0.0232	0	2500	0	0	1	0	1	-360	360;
	20	26	0.0008	0.0156	0	2500	0	0	1	0	1	-360	360;
	28	29	0	0.0181	0	2500	0	0	1	0	1	-360	360;
	33	36	0	0.025	0	2500	0	0	1	0	1	-360	360;
	40	41	0	0.0161	0	2500	0	0	1	0	1	-360	360;
	49	48	0.0156	0.1536	0	2500	0	0	1	0	1	-360	360;
	48	100	0.001	0.1595	0	2500	0	0	1	0	1	-360	360;
	54	52	0.002	0.0233	0	789.941803	0	0	1	0	1	-360	360;
	54	55	0	0.013	0	2500	0	0	1	0	1	-360	360;
	56	57	0	0.142	0	2500	0	0	1	0	1	-360	360;
	58	59	0	0.0093	0	2500	0	0	1	0	1	-360	360;
	60	61	0	0.064	0	2500	0	0	1	0	1	-360	360;
	75	76	0.0001	0.0074	0	2500	0	0	1	0	1	-360	360;
	84	83	0.0052	0.0174	0	2500	0	0	1	0	1	-360	360;
	85	86	0	0.0057	0	2500	0	0	1	0	1	-360	360;
	87	85	0.0002	0.0246	0	2500	0	0	1	0	1	-360	360;
	101	102	0.0007	0.0211	0	2500	0	0	1	0	1	-360	360;
	101	103	0.0006	0.0151	0	2500	0	0	1	0	1	-360	360;
	137	136	0.0008	0.0239	0	2500	0	0	1	0	1	-360	360;
	38	39	0.00131	0.01997	0.51614	1216	2454	1804	0	0	1	-360	360;
	73	9002	0.0015	0.025	0	5000	5000	5000	0	0	1	-360	360;
	9002	74	0.0012	0.02	0	5000	5000	5000	0	0	1	-360	360;
	74	78	0.0009	0.015	0	5000	5000	5000	0	0	1	-360	360;
	77	78	0.0012	0.02	0	5000	5000	5000	0	0	1	-360	360;
	78	81	0.00072	0.012	0	5000	5000	5000	0	0	1	-360	360;
	78	79	0.0006	0.01	0	5000	5000	5000	0	0	1	-360	360;
	78	82	0.0006	0.01	0	5000	5000	5000	0	0	1	-360	360;
	78	9003	0.0012	0.02	0	5000	5000	5000	0	0	1	-360	360;
	9003	80	0.0012	0.02	0	5000	5000	5000	0	0	1	-360	360;
	81	80	0.0018	0.03	0	5000	5000	5000	0	0	1	-360	360;
	39	9001	0.0021	0.035	0	5000	5000	5000	0	0	1	-360	360;
	9001	73	0.0015	0.025	0	5000	5000	5000	0	0	1	-360	360;
];

%%-----  OPF Data  -----%%
%% generator cost data
%	1	startup	shutdown	n	x1	y1	...	xn	yn
%	2	startup	shutdown	n	c(n-1)	...	c0
mpc.gencost = [
	2	0	0	3	0	2.14	56690.1342;
	2	0	0	3	0	26.7511829	2882.87785;
	2	0	0	3	0	29.3552649	2451.24287;
	2	0	0	3	0	26.6086809	1318.09432;
	2	0	0	3	0	27.6659343	5385.66507;
	2	0	0	3	0	28.7459946	2795.81107;
	2	0	0	3	0	18.2689608	1726.79089;
	2	0	0	3	0	8.97944339	9438.8712;
	2	0	0	3	0	26.529977	3643.09984;
	2	0	0	3	0	26.0833523	4319.96344;
	2	0	0	3	0	0	4974.59732;
	2	0	0	3	0	0	242.60274;
	2	0	0	3	0	2.14	47967.4763;
	2	0	0	3	0	25.4039338	5153.95508;
	2	0	0	3	0	2.14	19425.985;
	2	0	0	3	0	0	0;
	2	0	0	3	0	0	0;
	2	0	0	3	0	0	0;
	2	0	0	3	0	0	8378.83562;
	2	0	0	3	0	0	331.917808;
	2	0	0	3	0	25.0345853	3069.53459;
	2	0	0	3	0	26.3115917	3912.3145;
	2	0	0	3	0	84.6059873	0;
	2	0	0	3	0	26.5041754	6348.61943;
	2	0	0	3	0	2.14	23130.9005;
	2	0	0	3	0	26.0711283	1544.49986;
	2	0	0	3	0	29.3126221	7266.03584;
	2	0	0	3	0	26.6023139	2597.66301;
	2	0	0	3	0	33.8499079	4945.89108;
	2	0	0	3	0	27.6411935	3083.3164;
	2	0	0	3	0	0	0;
	2	0	0	3	0	0	0;
	2	0	0	3	0	0	0;
	2	0	0	3	0	0	0;
	2	0	0	3	0	0	2860.5468;
	2	0	0	3	0	0	0;
	2	0	0	3	0	26.6869029	5688.36301;
	2	0	0	3	0	25.8120284	6524.58847;
	2	0	0	3	0	2.14	57144.5524;
	2	0	0	3	0	14.4354407	18141.3414;
	2	0	0	3	0	39.4263956	11883.0015;
	2	0	0	3	0	17.0080088	37093.7137;
	2	0	0	3	0	2.14	77390.0045;
	2	0	0	3	0	9.712622	32840.146;
	2	0	0	3	0	7.23068627	36528.8269;
	2	0	0	3	0	22.1102515	13727.4716;
	2	0	0	3	0	25.1392793	6491.59675;
	2	0	0	3	0	19.632447	35838.9832;
	2	0	0	3	0.02	250	0;
	2	0	0	3	0.02	250	0;
	2	0	0	3	0.02	250	0;
];

%% bus names
mpc.bus_name = {
	'MILLSTONE PT';
	'MONTVILLE   ';
	'MONTVILLE   ';
	'MONTVILLE   ';
	'CARD ST     ';
	'SHERMAN RD  ';
	'MEDWAY      ';
	'MILLBURY    ';
	'CARPENTER HL';
	'BRAYTON PT  ';
	'BRAYTON PT  ';
	'BRIDGEWATER ';
	'PILGRIM     ';
	'CANAL       ';
	'WALPOLA     ';
	'VERMONT YNK ';
	'SCOBIE      ';
	'SANDY POND  ';
	'POWNAL      ';
	'MAINE YANKEE';
	'MILLSTONE PT';
	'BRAYTON PT  ';
	'BRAYTON PT  ';
	'PILGRIM     ';
	'CANAL       ';
	'MAINE YANKEE';
	'VERMONT YNK ';
	'NORTHFIELD  ';
	'NORTHFIELD  ';
	'LUDLOW      ';
	'MANCHESTER  ';
	'SCOVILL ROCK';
	'HADDAM NECK ';
	'BLACK POND  ';
	'SOUTHINGTEN ';
	'CONN YANKEE ';
	'NEW SEATHED ';
	'GILBOA      ';
	'LEEDS       ';
	'NEW SEATHED ';
	'ROTTERDAM   ';
	'ALBANY      ';
	'EDIC        ';
	'PORTER      ';
	'PORTER      ';
	'COLTON      ';
	'MOSES W     ';
	'MOSES E     ';
	'PLATTSBURGH ';
	'CLAY        ';
	'CLAY        ';
	'ROCHESTER   ';
	'ROCHESTER   ';
	'NIAGARA W   ';
	'NIAGARA E   ';
	'HUNTLEY     ';
	'HUNTLEY     ';
	'GARDENVILLE ';
	'GARDENVILLE ';
	'DUNKIRK     ';
	'DUNKIRK     ';
	'STOLLE RD   ';
	'MEYER       ';
	'MEYER       ';
	'GESONIDGE   ';
	'WATERCURE   ';
	'WRHL        ';
	'HILLSIDE    ';
	'BINGHAMTON  ';
	'BINGHAMTON  ';
	'BINGHAMTON  ';
	'LAPEER      ';
	'PLEASANT VLY';
	'MILLWOOD    ';
	'RAMAPO      ';
	'RAMAPO      ';
	'BUCHANAN    ';
	'CE UG       ';
	'RAV A-3     ';
	'NORTHPORT   ';
	'GOETHALS    ';
	'AK-3        ';
	'KEITH       ';
	'KEITH JCT   ';
	'LAMBTON     ';
	'LAMBTON     ';
	'LAMBTON     ';
	'SCOTT       ';
	'SCOTT       ';
	'VIDA        ';
	'RICHVIEW    ';
	'HANMER      ';
	'ESSA        ';
	'ORANGEVILLE ';
	'DES JOAC    ';
	'HOLDEN      ';
	'MARTINDELE  ';
	'STLA        ';
	'PVR         ';
	'PHAS        ';
	'SAB 2       ';
	'BP 76       ';
	'PA 27       ';
	'BEACH       ';
	'BUCHANAN    ';
	'NEALE       ';
	'NEALE       ';
	'S CT        ';
	'SLT         ';
	'BURLINGTON  ';
	'DETWIERER   ';
	'CHATHAM     ';
	'LAUZON      ';
	'MARYSVILLE  ';
	'ST CLAIR    ';
	'WATERMAN    ';
	'PONTIAC     ';
	'WAYNE       ';
	'THETFORD    ';
	'ARGENTA     ';
	'SC415       ';
	'WATERMAN    ';
	'MONROE      ';
	'BRANCHBURG  ';
	'LINDON      ';
	'HUDSON      ';
	'ALBURTIS    ';
	'WHITPAIN    ';
	'KEENEY      ';
	'PEACH BOTTOM';
	'CONASTONE   ';
	'JUNIATA     ';
	'CONEMAUGH   ';
	'HOMER CITY  ';
	'KEYSTONE    ';
	'ERIE W      ';
	'ERIE S      ';
	'E TOMANO    ';
	'KYGER       ';
	'TE          ';
	'KNICKERBOCKER';
	'WOOD STREET';
	'EAST GARDEN CITY';
};
